UPD      TITLE 'DMSUPD     (CMS)       VM/370 - RELEASE 6'              00001000
         SPACE 2                                                        00002000
*                                                                       00003000
*        MACROS FOR INTERFACE WITH CMS V1.0 AND VM/370                  00004000
*                                                                       00005000
         SPACE                                                          00006000
         MACRO                                                          00007000
&NAME    CMS   &PLIST,&ERR,&BUFF=,&CMD=                                 00008000
         AIF   ('&NAME' EQ '').SKPNM                                    00009000
&NAME    EQU   * -            CALL A CMS FUNCTION                       00010000
.SKPNM   AIF   ('&BUFF' EQ '').SKPBF                                    00011000
         LA    R1,&BUFF -    BUFFER ADDRESS                             00012000
         ST    R1,&PLIST+28 - RESET BUFFER ADDRESS                      00013000
.SKPBF   LA    R1,&PLIST -    PARM LIST ADDRESS                         00014000
         AIF   ('&CMD' EQ '').SKCMD                                     00015000
         MVC   0(8,R1),=CL8'&CMD' -  FILL IN COMMAND NAME               00016000
.SKCMD   SVC   202 -          CALL TO CMS FUNCTION                      00017000
         AIF   ('&ERR' EQ '').NOERR                                     00018000
         DC    AL4(&ERR) -  ERROR RETURN ADDRESS                        00019000
         MEXIT                                                          00020000
.NOERR   DC    AL4(*+4) -     IGNORE ANY ERROR RETURN                   00021000
         MEND                                                           00022000
         SPACE 2                                                        00023000
         MACRO                                                          00024000
         WARN  &N                                                       00025000
         CLI   RC,&N                   COMPARE WITH OLD RC              00026000
         BH    *+8                     SKIP IF OLD IS HIGHER            00027000
         MVI   RC,&N                   SET HIGHER RETURN CODE           00028000
         MEND                                                           00029000
         SPACE 3                                                        00030000
         MACRO                                                          00031000
         UPITEM &F                                                      00032000
         LH    R1,ITEM+&F              GET OLD ITEM NUMBER FROM FSCB    00033000
         LA    R1,1(,R1)               INCREMENT IT                     00034000
         STH   R1,ITEM+&F              STORE NEW ITEM NUMBER            00035000
         MEND                                                           00036000
         EJECT                                                          00037000
         MACRO                                                          00038000
&NAME    LOG   &TEXT,&KEY,&CUTE                                         00039000
         LCLA  &NM                                                      00040000
         AIF   ('&NAME' EQ '').SKPNM                                    00041000
&NAME    EQU   * -            WRITE A RECORD TO LOGFILE                 00042000
.SKPNM   BAL   R1,CLRLOGB -   CLEAR LOGFILE BUFFER                      00043000
         AIF   ('&TEXT'(1,1) NE '''').LABL                              00044000
&NM      SETA  K'&TEXT-2                                                00045000
         LA    R1,=C&TEXT                                               00046000
         MVC   LOGBUFF(&NM),0(R1) -      MOVE MSG TO BUFFER             00047000
.DOIT    ANOP                                                           00048000
         BAL   R15,LOGIT                                                00049000
         MEXIT                                                          00050000
.LABL    AIF   ('&KEY' NE 'ERR').CCTL                                   00051000
         MVC   LOGBUFF(80),&TEXT -      MOVE CARD TO BUFFER             00052000
         AGO   .DOIT                                                    00053000
.CCTL    AIF   ('&KEY' NE 'CTL').CCUE                                   00054000
         MVC   LOGBUFF+8(72),&TEXT -   MOVE CARD TO BUFFER              00055000
         AGO   .DOIT                                                    00056000
.CCUE    AIF   ('&KEY' NE 'CUE').COL8                                   00057000
&NM      SETA  K'&CUTE-2                                                00058000
         MVC   LOGBUFF(&NM),=C&CUTE -  CUEING MESSAGE                   00059000
.COL8    MVC   LOGBUFF+16(80),&TEXT -    MOVE CARD TO BUFFER            00060000
         AGO   .DOIT                                                    00061000
         MEND                                                           00062000
         EJECT                                                          00063000
         MACRO                                                          00064000
&LABEL   OPT   &N,&MIN,&CKAD,&DO,&ARG                                   00065000
&LABEL   DC    CL8'&N' -               OPTION NAME                      00066000
         DC    AL2(&MIN-1) -           (MINIMUM # LETTERS) - 1          00067000
         DC    AL2(&CKAD-CKADS) -      CHECK ADDRESS                    00068000
         AIF   ('&DO' EQ 'ON').ON                                       00069000
         AIF   ('&DO' EQ 'OFF').OFF                                     00070000
         AIF   ('&DO' EQ 'GO').GO                                       00071000
         MNOTE 8,'ILLEGAL PARAMETER ''&DO'''                            00072000
         MEXIT                                                          00073000
.ON      AIF   ('&N' EQ 'STOR').ON2                                     00074000
         OI    GLOBALS,&ARG   - TURN ON FLAG                            00075000
         SPACE                                                          00076000
         MEXIT                                                          00077000
.ON2     OI    UPDFLAG,&ARG   - TURN ON FLAG                            00078000
         SPACE                                                          00079000
         MEXIT                                                          00080000
.OFF     AIF   ('&N' EQ 'NOSTOR').OFF2                                  00081000
         NI    GLOBALS,X'FF'-&ARG  - TURN OFF FLAG                      00082000
         SPACE                                                          00083000
         MEXIT                                                          00084000
.OFF2    NI    UPDFLAG,X'FF'-&ARG  - TURN OFF FLAG                      00085000
         SPACE                                                          00086000
         MEXIT                                                          00087000
.GO      B     &ARG -                  BRANCH TO OPTION HANDLER         00088000
         SPACE                                                          00089000
         MEXIT                                                          00090000
         MEND                                                           00091000
         EJECT                                                          00092000
*.                                                                      00093000
* MODULE NAME -                                                         00094000
*                                                                       00095000
*        DMSUPD (UPDATE COMMAND)                                        00096000
*                                                                       00097000
* FUNCTION -                                                            00098000
*                                                                       00099000
*        CMS 'UPDATE' COMMAND -- UPDATE SOURCE FILES ACCORDING          00100000
*        TO SPECIFICATIONS IN UPDATE FILES.  MULTIPLE UPDATES           00101000
*        MAY BE MADE, ACCORDING TO SPECIFICATIONS IN CONTROL            00102000
*        FILES WHICH DESIGNATE THE UPDATE FILES.                        00103000
*                                                                       00104000
* ATTRIBUTES -                                                          00105000
*                                                                       00106000
*        DISK RESIDENT, NON-RE-ENTRANT, NON-REUSABLE                    00107000
*                                                                       00108000
* ENTRY POINTS -                                                        00109000
*                                                                       00110000
*        DMSUPD                                                         00111000
*                                                                       00112000
* ENTRY CONDITIONS -                                                    00113000
*                                                                       00114000
*        LA    R1,PLIST                                                 00115000
*        SVC 202                                                        00116000
*                                                                       00117000
*        WHERE THE PLIST HAS THE FORMAT DESCRIBED IN THE COMMAND        00118000
*        LANGUAGE USER'S GUIDE                                          00119000
*                                                                       00120000
* EXIT CONDITIONS -                                                     00121000
*                                                                       00122000
*        NORMAL -                                                       00123000
*        RETURN CODE 0 IN REGISTER 15                                   00124000
*                                                                       00125000
*        ERROR -                                                        00126000
*        RETURN CODE IN REGISTER 15                                     00127000
*        4     SEQUENCE ERROR IN INPUT SOURCE FILE                      00128000
*        8     SEQUENCE ERROR INTRODUCED INTO OUTPUT FILE               00129000
*        12    OTHER NON-FATAL UPDATING ERROR (SUCH AS INVALID          00130000
*              UPDATE FILE CONTROL CARD)                                00131000
*        20-36 FATAL ERROR, CAUSING UPDATE TO ABORT (SUCH AS            00132000
*              INVALID OPTION, MISSING FILENAME, INVALID CONTROL        00133000
*              FILE, ETC.)                                              00134000
*        40    NO UPDATE FILES WERE FOUND WITH 'CTL' OPTION             00135000
*        100   I/O ERROR READING OR WRITING                             00136000
*                                                                       00137000
* CALLS TO OTHER ROUTINES -                                             00138000
*                                                                       00139000
*        ADTLKP    LOOK UP ACTIVE DISK TABLE                            00140000
*        ADTLKW    LOOK UP READ/WRITE ACTIVE DISK TABLE                 00141000
*        FSREAD    READ RECORDS FROM INPUT FILES                        00142000
*        FSWRITE   WRITE RECORDS TO OUTPUT FILES                        00143000
*        FSCLOSE   CLOSE INPUT AND OUTPUT FILES                         00144000
*        FSERASE   ERASE OLD COPIES OF OUTPUT FILES                     00145000
*        PRINTL    PRINT THE LOG FILE                                   00146000
*        LINEDIT   TYPE MESSAGES AND FORM LINES                         00147000
*        DMSERR    TYPE ERROR MESSAGES                                  00148000
*        FSSTATE   DETERMINE EXISTENCE OF INPUT FILES                   00149000
*        ATTN      STACK LINES (WITH 'STK' OPTION)                      00150000
*        RENAME    RENAME WORK FILES                                    00151000
*                                                                       00152000
* EXTERNAL REFERENCES -                                                 00153000
*                                                                       00154000
*        NUCON     NUCLEUS CONSTANTS AND VARIABLES                      00155000
*        ADT       ACTIVE DISK TABLE                                    00156000
*                                                                       00157000
* TABLES / WORKAREAS -                                                  00158000
*                                                                       00159000
*        NONE -- ALL WORK STORAGE IS IN-LINE                            00160000
*                                                                       00161000
* REGISTER USAGE -                                                      00162000
*                                                                       00163000
*        R12   BASE REGISTER # 1                                        00164000
*        R11   BASE REGISTER # 2                                        00165000
*        R9    BASE REGISTER # 3                                        00166000
*        R10   HOLDS SEQ8/SEQ5 COUNT FOR EX                             00167000
*        R2 - R8 WORK REGISTERS                                         00168000
*                                                                       00169000
* NOTES -                                                               00170000
*                                                                       00171000
*        NONE                                                           00172000
*                                                                       00173000
* OPERATION -                                                           00174000
*                                                                       00175000
*        IF A SINGLE UPDATE IS TO BE PERFORMED, THEN THE INPUT          00176000
*        SOURCE FILE AND THE UPDATE FILE ARE OPENED.  AS THE            00177000
*        CONTROL CARDS ARE READ FROM THE UPDATE FILE, INSERTIONS        00178000
*        AND DELETIONS ARE MADE TO THE SOURCE FILE, WITH THE            00179000
*        UPDATED VERSION WRITTEN ONTO DISK AS $FNAME.                   00180000
*                                                                       00181000
*        IF MULTIPLE UPDATES ARE TO BE PERFORMED, THEN THE CONTROL      00182000
*        FILE IS OPENED, AND USED AS A GUIDE TO THE VARIOUS             00183000
*        UPDATE FILES.  UPDATE FILE CONTROL CARDS MAY REFER             00184000
*        TO UPDATE FILES, OR TO 'AUX' FILES CONTAINING                  00185000
*        DESIGNATIONS OF UPDATE FILEIDS.  (THE EXACT FORMATS OF         00186000
*        THESE FILES IS DESCRIBED IN DETAIL IN THE COMMAND              00187000
*        LANGUAGE USER'S GUIDE.)  IF NO UPDATE FILES ARE FOUND          00188000
*        AT ALL, A RETURN CODE OF 40 IS GENERATED (THIS CODE IS         00189000
*        GENERATED IN ONLY THIS WAY).                                   00190000
*         WHEN MULTIPLE UPDATES ARE BEING PERFORMED, THE INPUT          00191000
*         SOURCE FILE IS READ INTO STORAGE AND THE UPDATES ARE          00192000
*         THEN PERFORMED IN STORAGE.  ALL UPDATES ARE DONE              00193000
*         IN STORAGE BEFORE THE OUTPUT FILE IS CREATED                  00194000
*         ON DISK.                                                      00195000
*                                                                       00196000
*        AS A FINAL STEP, IF THE 'REP' OPTION WAS SPECIFIED, THEN       00197000
*        THE $FNAME FILE IS RENAMED TO FNAME.                           00198000
*.                                                                      00199000
         EJECT                                                          00200000
* "FSSTATE/FSREAD/FSWRITE/FSCLOSE/FSERASE" MACROS WITH BALR CALLS:      00201000
         SPACE                                                          00202000
         MACRO                                                          00203000
&LABEL   FSSTATE &FILEID,&FSCB=,&ERROR=                                 00204000
         GBLC  &DMSNAME,&DMSTYPE,&DMSMODE                               00205000
         AIF   (T'&FILEID EQ 'O' AND T'&FSCB EQ 'O').ERR1               00206000
         AIF   (T'&FILEID EQ 'O').NOID                                  00207000
         AIF   ('&FILEID'(1,1) NE '''' AND '&FILEID'(1,1) NE '(').ERR2  00208000
         AIF   ('&FILEID'(1,1) EQ '(' AND '&FILEID(1)' EQ '1').ERR3     00209000
         AIF ('&FILEID'(1,1) EQ '(' AND '&FILEID(1)' EQ '0').ERR4       00210000
&DMSNAME SETC  ' '                                                      00211000
&DMSTYPE SETC  ' '                                                      00212000
&DMSMODE SETC  ' '                                                      00213000
         AIF   ('&FILEID'(1,1) EQ '(').SKIP1                            00214000
&DMSMODE SETC  'A1'                                                     00215000
         DMSPID &FILEID                                                 00216000
         AIF   ('&DMSNAME' EQ ' ' OR '&DMSTYPE' EQ ' ').ERR2            00217000
.SKIP1   AIF   (T'&FSCB EQ 'O').NOCB                                    00218000
.NOID    AIF   (T'&LABEL EQ 'O').NLBL                                   00219000
&LABEL   DS    0H                                                       00220000
.NLBL    ANOP                                                           00221000
         AIF   ('&FSCB'(1,1) EQ '(').REG1                               00222000
         LA    1,&FSCB                                                  00223000
         AGO   .CONT1                                                   00224000
.REG1    AIF   ('&FSCB(1)' EQ '1').CONT1                                00225000
         LR    1,&FSCB(1)                                               00226000
.CONT1   ANOP                                                           00227000
         AIF   (T'&FILEID EQ 'O').CONT2                                 00228000
         AIF   ('&FILEID'(1,1) EQ '(').REG2                             00229000
         MVC   8(8,1),=CL8'&DMSNAME'                                    00230000
         MVC   16(8,1),=CL8'&DMSTYPE'                                   00231000
         MVC   24(2,1),=CL2'&DMSMODE'                                   00232000
         AGO   .CONT2                                                   00233000
.REG2    ANOP                                                           00234000
         MVC   8(18,1),0(&FILEID(1))                                    00235000
.CONT2   ANOP                                                           00236000
         MVC   40(4,1),28(1)                                            00237000
         ST    R14,0(,R1)     PRESERVE R14 (IN P-LIST)                  00238000
         L     R15,ASTATE     CALL 'STATE' VIA BALR                     00239000
         BALR  R14,R15        ...                                       00240000
         L     R14,0(,R1)     RECOVER R14                               00241000
         AIF   (T'&ERROR EQ 'O').NOER                                   00242000
         BNZ   &ERROR                                                   00243000
         AGO   .CONT3                                                   00244000
.NOER    ANOP                                                           00245000
         BNZ   DMS&SYSNDX.B                                             00246000
.CONT3   ANOP                                                           00247000
         L     15,28(,1)                                                00248000
         MVC   28(4,1),40(1)                                            00249000
         LR    1,15                                                     00250000
         SR    15,15                                                    00251000
         AIF   (T'&ERROR NE 'O').EXIT                                   00252000
DMS&SYSNDX.B EQU *                                                      00253000
.EXIT    MEXIT                                                          00254000
.NOCB    ANOP                                                           00255000
         CNOP  0,4                                                      00256000
&LABEL   BAL   1,DMS&SYSNDX.A                                           00257000
         DC    CL8'STATE'                                               00258000
         DC    CL8'&DMSNAME'                                            00259000
         DC    CL8'&DMSTYPE'                                            00260000
         DC    CL2'&DMSMODE'                                            00261000
         DC    CL2' '                                                   00262000
         DC    AL4(0)                                                   00263000
DMS&SYSNDX.A EQU *                                                      00264000
         AIF   ('&FILEID'(1,1) NE '(').SKIP2                            00265000
         MVC   8(18,1),0(&FILEID(1))                                    00266000
.SKIP2   ANOP                                                           00267000
         ST    R14,0(,R1)     PRESERVE R14 (IN P-LIST)                  00268000
         L     R15,ASTATE     CALL 'STATE' VIA BALR                     00269000
         BALR  R14,R15        ...                                       00270000
         L     R14,0(,R1)     RECOVER R14                               00271000
         AIF   (T'&ERROR EQ 'O').NERR                                   00272000
         BNZ   &ERROR                                                   00273000
         AGO   .SKIP3                                                   00274000
.NERR    ANOP                                                           00275000
         BNZ   *+8                                                      00276000
.SKIP3   ANOP                                                           00277000
         L     1,28(,1)                                                 00278000
         MEXIT                                                          00279000
.ERR1    MNOTE 8,'NEITHER FILEID OF FSCB SPECIFIED'                     00280000
         MEXIT                                                          00281000
.ERR2    MNOTE 8,'INVALID FILEID SPECIFICATION'                         00282000
         MEXIT                                                          00283000
.ERR3    MNOTE 8,'REGISTER 1 INVALID FOR FILEID'                        00284000
         MEXIT                                                          00285000
.ERR4    MNOTE 8,'INVALID USE OF REGISTER 0'                            00286000
         MEND                                                           00287000
         SPACE                                                          00288000
         MACRO                                                          00289000
&LABEL   FSREAD &FILEID,&FSCB=,&RECFM=,&BUFFER=,&BSIZE=,&RECNO=,&NOREC=X00290000
               ,&ERROR=                                                 00291000
         GBLC  &DMSNAME,&DMSTYPE,&DMSMODE                               00292000
         AIF   (T'&FILEID EQ 'O' AND T'&FSCB EQ 'O').ERR1               00293000
         AIF   (T'&FILEID EQ 'O').NOID                                  00294000
         AIF   ('&FILEID'(1,1) NE '''' AND '&FILEID'(1,1) NE '(').ERR2  00295000
         AIF   ('&FILEID'(1,1) EQ '(' AND '&FILEID(1)' EQ '0').ERR3     00296000
         AIF   ('&FILEID'(1,1) EQ '(' AND '&FILEID(1)' EQ '1').ERR3     00297000
&DMSNAME SETC  ' '                                                      00298000
&DMSTYPE SETC  ' '                                                      00299000
&DMSMODE SETC  ' '                                                      00300000
         AIF   ('&FILEID'(1,1) EQ '(').CONT1                            00301000
&DMSMODE SETC  'A1'                                                     00302000
         DMSPID &FILEID                                                 00303000
         AIF   ('&DMSNAME' EQ ' ' OR '&DMSTYPE' EQ ' ').ERR2            00304000
.CONT1   AIF   (T'&FSCB EQ 'O').NOCB                                    00305000
.NOID    AIF   (T'&LABEL EQ 'O').NLBL                                   00306000
&LABEL   DS    0H                                                       00307000
.NLBL    ANOP                                                           00308000
         AIF   ('&FSCB'(1,1) EQ '(').REG1                               00309000
         LA    1,&FSCB                                                  00310000
         AGO   .CONT2                                                   00311000
.REG1    AIF   ('&FSCB(1)' EQ '1').CONT2                                00312000
         LR    1,&FSCB(1)                                               00313000
.CONT2   AIF   (T'&FILEID EQ 'O').CONT3                                 00314000
         AIF   ('&FILEID'(1,1) EQ '(').REG2                             00315000
         MVC   8(8,1),=CL8'&DMSNAME'                                    00316000
         MVC   16(8,1),=CL8'&DMSTYPE'                                   00317000
         MVC   24(2,1),=CL2'&DMSMODE'                                   00318000
         AGO   .CONT3                                                   00319000
.REG2    ANOP                                                           00320000
         MVC   8(18,1),0(&FILEID(1))                                    00321000
.CONT3   AIF   (T'&RECNO EQ 'O').SKIP1                                  00322000
         AIF   ('&RECNO'(1,1) EQ '(').STOR1                             00323000
         MVC   26(2,1),=H'&RECNO'                                       00324000
         AGO   .SKIP1                                                   00325000
.STOR1   ANOP                                                           00326000
         AIF   ('&RECNO(1)' EQ '1').ERR4                                00327000
         STH   &RECNO(1),26(,1)                                         00328000
.SKIP1   AIF   (T'&BUFFER EQ 'O').SKIP2                                 00329000
         AIF   ('&BUFFER'(1,1) EQ '(').STOR2                            00330000
         MVC   28(4,1),=A(&BUFFER)                                      00331000
         AGO   .SKIP2                                                   00332000
.STOR2   ANOP                                                           00333000
         AIF   ('&BUFFER(1)' EQ '1').ERR5                               00334000
         ST    &BUFFER(1),28(,1)                                        00335000
.SKIP2   AIF   (T'&BSIZE EQ 'O').SKIP3                                  00336000
         AIF   ('&BSIZE'(1,1) EQ '(').STOR3                             00337000
         MVC   32(4,1),=F'&BSIZE'                                       00338000
         AGO   .SKIP3                                                   00339000
.STOR3   ANOP                                                           00340000
         AIF   ('&BSIZE(1)' EQ '1').ERR6                                00341000
         ST    &BSIZE(1),32(,1)                                         00342000
.SKIP3   AIF   (T'&RECFM EQ 'O').SKIP4                                  00343000
         AIF   ('&RECFM'(1,1) EQ '(').STOR4                             00344000
         AIF   ('&RECFM' NE 'F' AND '&RECFM' NE 'V').ERR11              00345000
         MVC   36(2,1),=CL2'&RECFM'                                     00346000
         AGO   .SKIP4                                                   00347000
.STOR4   ANOP                                                           00348000
         AIF   ('&RECFM(1)' EQ '1').ERR7                                00349000
         STC   &RECFM(1),36(,1)                                         00350000
.SKIP4   AIF   (T'&NOREC EQ 'O').SKIP5                                  00351000
         AIF   ('&NOREC'(1,1) EQ '(').STOR5                             00352000
         MVC   38(2,1),=H'&NOREC'                                       00353000
         AGO   .SKIP5                                                   00354000
.STOR5   ANOP                                                           00355000
         AIF   ('&NOREC(1)' EQ '1').ERR8                                00356000
         STH   &NOREC(1),38(,1)                                         00357000
.SKIP5   ANOP                                                           00358000
         ST    R14,0(,R1)     PRESERVE R14 (IN P-LIST)                  00359000
         L     R15,ARDBUF     CALL 'RDBUF' VIA BALR                     00360000
         BALR  R14,R15        ...                                       00361000
         L     R14,0(,R1)     RECOVER R14                               00362000
         AIF   (T'&ERROR EQ 'O').NOER                                   00363000
         BNZ   &ERROR         BRANCH IF ERROR OCCURRED                  00364000
.NOER    ANOP                                                           00365000
         L     0,40(,1)                                                 00366000
         MEXIT                                                          00367000
.NOCB    ANOP                                                           00368000
         AIF   (T'&BUFFER EQ 'O').ERR9                                  00369000
         AIF   (T'&BSIZE EQ 'O').ERR10                                  00370000