VSP      TITLE 'DMKVSP     (CP)        VM/370 - RELEASE 6'              00001000
         ISEQ  73,80          VALIDATE SEQUENCING OF INPUT              00002000
         MACRO                                                          00003000
&NAME    RELOC                                                          00004000
         ENTRY &NAME                                                    00005000
&NAME    DS    0H                                                       00006000
         DROP  R10                                                      00007000
         USING *,R12                                                    00008000
         ENTER                                                          00009000
         SL    R12,=A(&NAME-&SYSECT)                                    00010000
         USING &SYSECT,R12                                              00011000
         USING &SYSECT+4096,R10                                         00012000
         MEND                                                           00013000
*.                                                                      00014000
* MODULE NAME -                                                         00015000
*                                                                       00016000
*        DMKVSP                                                         00017000
*                                                                       00018000
* FUNCTION -                                                            00019000
*                                                                       00020000
*        TO HANDLE THE SIMULATION OF ALL USER SIO'S TO A VIRTUAL UNIT   00021000
*        RECORD DEVICE (CARD READER, PUNCH, PRINTER, OR PSEUDO          00022000
*        TIMER) THAT IS SPOOLED RATHER THAN DEDICATED.  ALSO, TO        00023000
*        HANDLE CONTROL PROGRAM REQUESTS THAT WISH TO PRINT ON THE      00024000
*        USERS VIRTUAL PRINTER                                          00025000
*                                                                       00026000
* ATTRIBUTES -                                                          00027000
*                                                                       00028000
*        REENTRANT, RESIDENT, ENTERED VIA GOTO FROM DMKVIOEX            00029000
*                                                                       00030000
* ENTRY POINTS -                                                        00031000
*                                                                       00032000
*        DMKVSPEX - TO SIMULATE A SIO TO A SPOOLED UNIT RECORD DEVICE   00033000
*        DMKVSPRT - TO PLACE A LINE GENERATED BY THE CONTROL PRO-       00034000
*                   GRAM ON THE USER'S SPOOLED PRINTER                  00035000
*        DMKVSPCR - TO STOP PROCESSING THE FILE CURRENTLY IN THE SPOOL- 00036000
*                   ED CARD READER, AND TO CLEAR ALL PENDING STATUS     00037000
*                   FROM THE DEVICE                                     00038000
*        DMKVSPCO - TO PERFORM SIMILAR CLOSE FUNCTIONS FOR              00039000
*                   THE SPOOLED PRINTERS AND PUNCHES                    00040000
*                                                                       00041000
*        DMKVSPCP - CALLED FROM WITHIN DMKVSP TO WRITE CONSOLE          00042000
*                   HARDCOPY PRINT LINE                                 00043000
*        DMKVSPTO - CALLED FROM DMKVIO AS A SUBROUTINE TO CHECK IF      00044000
*                   THE VIRL READER IS EMPTY                            00045000
* NON-EXECUTABLE ENTRY POINTS -                                         00046000
*                                                                       00047000
*        DMKVSPWA - INDEX WORK AREA FOR 3211                            00048000
*                                                                       00049000
* ENTRY CONDITIONS -                                                    00050000
*                                                                       00051000
*        GPR2  = CONTENTS OF THE USER'S CAW (VIRTUAL ADDRESS)           00052000
*        GPR8  = ADDRESS OF THE VDEVBLOK FOR ADDRESSED VIRTUAL DEVICE   00053000
*        GPR9  = DEVICE ADDRESS (CCU IN BINARY)                         00054000
*        GPR11 = ADDRESS OF USER'S VMBLOK                               00055000
*        GPR12 = ADDRESS OF DMKVSP                                      00056000
*                                                                       00057000
*        NOTE THAT WHEN DMKVSPEX IS ENTERED FROM DMKVIO, GPR13 DOES     00058000
*        NOT POINT TO A SAVEAREA, AND THE ENTER AND EXIT MACROS MAY NOT 00059000
*        BE USED.  INSTEAD EXIT IS MADE DIRECTLY TO DMKDSPCH VIA A      00060000
*        GOTO.  HOWEVER, IF ANY OF THE OTHER ENTRY POINTS ARE CALLED,   00061000
*        THE RETURN MUST BE MADE IN THE NORMAL MANNER                   00062000
*                                                                       00063000
* EXIT CONDITIONS -                                                     00064000
*                                                                       00065000
*        NORMAL -                                                       00066000
*        EXIT IS MADE DIRECTLY TO DMKDSPCH, WITH THE CORRECT PENDING    00067000
*        STATUS PLACED IN ALL VIRTUAL IO BLOKS AND THE USER'S           00068000
*        CHANNEL PROGRAM COMPLETELY INTERPRETED.  NOTE THAT THE         00069000
*        USER HAS REMAINED IN EXWAIT DURING THE ENTIRE PROCESS, IN CON- 00070000
*        TRAST TO SELECTOR CHANNEL IO                                   00071000
*                                                                       00072000
         EJECT                                                          00073000
*                                                                       00074000
* CALLS TO OTHER ROUTINES -                                             00075000
*                                                                       00076000
*        DMKPGTSG - TO OBTAIN DASD PAGE BUFFER SPACE                    00077000
*        DMKRPAGT - TO READ A PAGE BUFFER INTO VIRTUAL MEMORY           00078000
*        DMKRPAPT - WRITE A BUFFER FROM VIRTUAL MEMORY TO DASD          00079000
*        DMKSCNVD - TO GET FULL VIRTUAL DEVICE ADDRESS                  00080000
*        DMKSCNVU - TO LOCATE THE VCUBLOK AND VCHBLOK IN ORDER TO POST  00081000
*                   ANY PENDING INTERRUPT AFTER INTERPRETATION IS COM-  00082000
*                   PLETED                                              00083000
*        DMKSPLOV - TO OPEN A NEW DASD OUTPUT SPOOL FILE                00084000
*        DMKSPLCV - TO CLOSE A NEW DASD OUTPUT SPOOL FILE               00085000
*        DMKSPLDL - TO PURGE A PARTIALLY COMPLETE FILE                  00086000
*        DMKSTKCP - TO QUEUE A CP EXEC BLOK                             00087000
*        DMKCVTBH - CONVERT DEVICE ADDRESS FOR ERROR MESSAGES           00090000
*        DMKTMRPT - TO GET USER'S TOTAL PROBLEM TIME USED               00091000
*        DMKERMSG - TO WRITE ERROR MESSAGES                             00092000
*        DMKPGTVR - TO RELEASE VIRTUAL BUFFER                           00093000
*        DMKPGTVG - TO GET A VIRTUAL BUFFER                             00094000
*        DMKPSASC - CHECK IF CCW'S ARE WRITTING INTO A SHARED PAGE      00096000
*        DMKPSACC - TO TEST IF A SHARED PAGE WAS CHANGED BY RUNUSER     00097000
*        DMKVMAPS - TO UNSHARE A NAMED SYSTEM FROM RUNUSER              00098000
*        DMKFREE, DMKFRET, DMKQCNWT, AND DMKCVTDT FOR THE USUAL REASONS 00099000
*        DMKCKSPL - CHECKPOINT THE SFBLOK                               00100000
*                                                                       00101000
* EXTERNAL REFERENCES -                                                 00102000
*                                                                       00103000
*        DMKVIOMK - A TABLE OF BIT FLAGS INDEXABLE BY DEVICE ADDRESS,   00104000
*                   USED TO SET AND CLEAR PENDING FLAGS IN VIRTUAL      00105000
*                   DEVICE, CONTROL UNIT AND CHANNEL BLOKS              00106000
*                                                                       00108000
* TABLES / WORKAREAS -                                                  00109000
*                                                                       00110000
*                                                                       00111000
* REGISTER USAGE -                                                      00112000
*                                                                       00113000
*        GPR2  = REAL ADDRESS OF THE PAGED SPOOL BUFFER                 00114000
*        GPR3  = REAL ADDRESS OF THE USER'S DATA AREA                   00115000
*        GPR4,5 - WORK REGISTERS                                        00116000
*        GPR5  = BASE REG FOR VFCBBLOK (PARTIME)                        00117000
*        GPR6  = INTERNAL SUBROUTINE LINKAGE                            00118000
*        GPR7  = ADDRESS OF SFBLOK FOR ACTIVE FILE                      00119000
*        GPR8  = ADDRESS OF VDEVBLOK FOR ACTIVE VIRTUAL DEVICE          00120000
*        GPR9  = ADDRESS OF VSPLCTL WORKAREA                            00121000
*        GPR10 = DMKVSP BASE ADDRESS NUMBER TWO                         00122000
*        GPR11 = ADDRESS OF THE USER'S VMBLOK                           00123000
*        GPR12 = DMKVSP BASE ADDRESS                                    00124000
*        GPR13 = INDEX TO DATA IN SPOOLING BUFFER                       00125000
*        GPR13 = DEVICE ADDRESS, OR SAVEAREA IF ONE OF THE VIRTUAL      00126000
*                CLOSE ROUTINES WAS CALLED                              00127000
*        GPR14,15 - BALR LINKAGE FOR DMKFREE/DMKFRET                    00128000
*                                                                       00129000
         EJECT                                                          00130000
* NOTES -                                                               00131000
*                                                                       00132000
* OPERATION -                                                           00133000
*                                                                       00134000
*        1. IF THE DEVICE IS CP BUSY (VDEVSVC=1): BAL TO                00135000
*           STKCPBLK ROUTINE TO BUILD AND STACK A CPEXBLOK              00136000
*           ON VSPSTK ANCHOR CHAIN TO DELAY THE REQUEST.                00137000
*           WHEN THE CPEXBLOK IS UNSTACKED CONTROL WILL BE              00138000
*           GIVEN TO ROUTINE AT LABEL RETCPEX.                          00139000
*           MARK THE VIRTUAL DEVICE AND SUBCHANNEL BUSY, CLEAR THE      00140000
*           CSW AND SAVE THE STORAGE KEY; THEN, IF THE SIO IS TO        00141000
*           PSEUDO TIMER DEVICE, GO HANDLE THAT CASE; OTHERWISE,        00142000
*           CONTINUE                                                    00143000
*                                                                       00144000
*        2. FOR SIO'S TO VIRTUAL READERS, PRINTERS AND PUNCHES, TEST    00145000
*           TO SEE IF A FILE IS ALREADY OPEN ON THE DEVICE; IF ONE IS   00146000
*           OPEN, BRANCH TO HANDLE THE PARTICULAR DEVICE TYPE,          00147000
*           OTHERWISE, GO OPEN THE FILE.                                00148000
*                                                                       00149000
*        3. IF A FILE IS SUCCESFULLY OPENED, CONTINUE PROCESSING FOR    00150000
*           THE GIVEN DEVICE TYPE; OTHERWISE RETURN AN ERROR CON-       00151000
*           DITION TO THE USER                                          00152000
*                                                                       00153000
* ERROR MESSAGES -                                                      00154000
*                                                                       00155000
*        DMKVSP427I (TYPE) (VADDR) SYSTEM SPOOL SPACE FULL; FILE CLOSED 00156000
*        DMKVSP429I (TYPE) (VADDR) SPOOL ERROR; FILE HELD               00157000
*        DMKVSP429I (TYPE) (VADDR) SPOOL ERROR; FILE PURGED             00158000
*                                                                       00159000
*        ABEND VSP001                                                   00160000
*              A CALL TO DMKSCNVU TO LOCATE THE VDEVBLOK, VCHBLOK AND   00161000
*              VCUBLOK.  ONE OR MORE OF THE BLOK COULD NOT BE LOCATED   00162000
*                                                                       00163000
*.                                                                      00164000
         EJECT                                                          00165000
         COPY  OPTIONS                                                  00166000
         COPY  LOCAL               OPTIONS                              00167000
         EJECT                                                          00168000
DMKVSP   CSECT LOADER              CONTROL ONLY                         00169000
         SPACE                                                          00170000
         ENTRY DMKVSPEX                                                 00171000
         SPACE 3                                                        00172000
         EXTRN DMKCVTDT,DMKPGTVR,DMKPGTSG                               00173000
         EXTRN DMKSCNVU,DMKPGTVG,DMKCVTBH                               00174000
         EXTRN DMKSPLOV,DMKSPLCV                                        00175000
         EXTRN DMKSCNVD                                        @VA12421 00176000
         EXTRN DMKTMRPT                                                 00177000
         EXTRN DMKRPAGT,DMKRPAPT,DMKVIOMK                               00178000
         EXTRN DMKPGTSD                                        @VA11232 00178100
         EXTRN DMKERMSG,DMKPTRUL,DMKSPLDL                               00179000
         EXTRN DMKPSASC,DMKPSACC                               @V60BC11 00180000
         EXTRN DMKSTKCP                                                 00181000
         EXTRN DMKCKSPL                                        @V304298 00182000
         EXTRN DMKVMASH                                        @VA07351 00182100
         EXTRN DMKVSQPD                                        @V60BCAA 00182150
         SPACE 3                                                        00183000
         USING PSA,R0                                                   00184000
         USING SPLINK,R2                                                00185000
         USING SFBLOK,R7                                                00186000
         USING VDEVBLOK,R8                                              00187000
         USING VSPLCTL,R9                                               00188000
         USING VMBLOK,R11                                               00189000
         SPACE 2                                                        00190000
DMKVSPEX EQU   *                                                        00191000
         SPACE                                                          00192000
         USING *,R12                                                    00193000
         USING *+4096,R10                                               00194000
         SPACE 2                                                        00195000
         B     VSP0001                                                  00196000
ID       DC    CL8'DMKVSP'         MODULE NAME                          00197000
VSP0001  EQU   *                                                        00198000
         LR    R10,R12             SET UP SECOND BASE REGISTER          00199000
         A     R10,F4096           ..                                   00200000
         STH   R13,VDEVUNIT        SAVE FULL ADDRESS OF UNIT            00201000
         L     R1,VDEVIOCT         GET IOCOUNT FOR DEVICE               00202000
         AL    R1,F1               BUMP IO COUNT                        00203000
         ST    R1,VDEVIOCT         AND STORE                            00204000
         TM    VDEVSFLG,VDEVSVC DEVICE CP BUSY ??              @VM01021 00205000
         BZ    SETBUSY        NO -                             @VM01021 00206000
         LA    R6,RETCPEX     ADDRESS OF CPEX RETURN           @VM01021 00207000
         B     STKCPBLK       WAIT FOR DEVICE TO FREE UP       @VM01021 00208000
RETCPEX  AL    R8,VMDVSTRT    GET VDEVBLOK ADDRESS             @VM01021 00209000
         NI    VDEVSFLG,X'FF'-VDEVSVC RESET CP BUSY            @VM01021 00210000
SETBUSY  OI    VDEVSTAT,VDEVBUSY+VDEVCHBS INDICATE CP BUSY     @VM01021 00211000
         XC    VDEVCSW,VDEVCSW     CLEAR VIRTUAL CSW                    00212000
         LA    R1,0(,R2)           CLEAR STORAGE KEY FROM CAW           00213000
         OI    VDEVFLAG,VDEVCCW1   INDICATE 1ST CCW                     00214000
         STCM  R2,8,VDEVKEY        SAVE STORAGE KEY IN VDEVBLOK         00215000
         CLI   VDEVTYPE,TYPTIMER   SIO TO A VIRTUAL PSEUDO-TIMER?       00216000
         BE    SIOTIMER            YES --                               00217000
         L     R9,VDEVSPL          GET ADDRESS OF SPOOLING WORKAREA     00218000
         LTR   R9,R9               IS FILE OPEN YET?                    00219000
         BNZ   INPROCES            YES                                  00220000
         BAL   R6,OPEN             GO OPEN THE FILE                     00221000
         ST    R7,VSPSFBLK         SAVE ADDRESS OF SPOOL FILE BLOK      00222000
         ST    R1,VSPCAW           SAVE CAW ADDRESS                     00223000
         SPACE                                                          00224000
WKBUF    EQU   *              ABTAIN A WORK BUFFER FOR CCW'S AND DATA   00225000
         L     R5,VSPBUFBK         ADDRESS OF WORK BUFFER               00226000
         LTR   R5,R5               BUFFER PRESENT ??                    00227000
         BNZ   INPRO1              YES -                                00228000
         SPACE                                                          00229000
         LA    R0,VSPBUFSZ         LENGTH OF WORK BUFFER                00230000
         CALL  DMKFREE             OBTAIN STORAGE FOR WORK BUFFER       00231000
         ST    R1,VSPBUFBK         SAVE ADDRESS OF WORK BUFFER          00232000
         B     INPRO1              AND PROCESS                          00233000
         SPACE 2                                                        00234000
INPROCES ST    R1,VSPCAW           SAVE VIRTUAL ADDRESS OF CCW          00235000
INPRO1   L     R7,VSPSFBLK         GET ADDRESS OF SPOOL FILE BLOCK      00236000
         L     R6,VSPBUFBK         WORK BUFFER AVAILABLE ?              00237000
         LTR   R6,R6               ..                                   00238000
         BZ    WKBUF               NO WORK BUFFER - GO GET ONE          00239000
         XC    VSPCCW,VSPCCW       CLEAR CCW SAVEAREA                   00240000
         MVI   VSPIDASW,0          RESET IDA SWITCH                     00241000
         BAL   R6,GETCCW           GO PICK UP FIRST CCW                 00242000
         NOP   *+4            CORRECT ALLIGNMENT FOR RETURN    @VA04572 00242350
*                                 FROM LABEL 'NONIDA'          @VA04572 00242700
         CLI   VDEVTYPC,CLASURI    IS IT UNIT RECORD READER ??          00243000
         BE    READER              YES -- READER TYPE                   00244000
         B     PRINTER             FOR PRINTER AND PUNCH TYPE           00245000
         EJECT                                                          00246000
*.                                                                      00247000
*                                                                       00248000
* PSEUDO-TIMER DEVICE PROCESSING                                        00249000
*                                                                       00250000
*        1. VERIFY THAT THE CCW ADDRESS IS ALIGNED AND WITHIN THE       00251000
*           USER'S VIRTUAL ADDRESS SPACE                                00252000
*                                                                       00253000
*        2. TRANS FOR THE CCW AND VERIFY THAT THE DATA ADDRESS IS       00254000
*           WITHIN THE USER'S ADDRESS SPACE, AND THAT THE 24 BYTE       00255000
*           DATA AREA WILL NOT CROSS A PAGE BOUNDARY                    00256000
*                                                                       00257000
*        3. TRANS FOR THE DATA PAGE, VERIFY THAT STORAGE PROTECTION IS  00258000
*           NOT VIOLATED, AND MOVE THE DATE, TIME, VIRTUAL CPU TIME     00259000
*           AND TOTAL CPU TIME TO THE USER                              00260000
*                                                                       00261000
*        4. EXIT TO DMKDSPCH WITHOUT POSTING ANY INTERRUPTS AS          00262000
*           PENDING                                                     00263000
*                                                                       00264000
*.                                                                      00265000
         SPACE 2                                                        00266000
SIOTIMER EQU   *  HERE TO SIMULATE A SIO TO A PSEUDO TIMER              00267000
         EX    R1,CAWTEST          TEST FOR DOUBLE WORD ALIGNMENT       00268000
         BNZ   PROGCHK             INVALID ALIGNMENT                    00269000
         SL    R8,VMDVSTRT   VDEVBLOK DISP                     @VA00716 00270000
         TRANS 2,1,OPT=(BRING,DEFER),ADEX=PROGCHK1,IOER=EXIT1  @VA05901 00271100
*                            USER CCW                                   00272000
         AL    R8,VMDVSTRT   VDEVBLOK ADDRESS                  @VA00716 00273000
         L     R1,0(,R2)           GET DATA ADDRESS                     00274000
         LA    R1,0(,R1)           CLEAR CCW OP-CODE                    00275000
         LR    R2,R1               DATA MUST NOT CROSS PAGE BOUNDARY    00276000
         A     R2,=F'23'           FINE LAST DATA BYTE ADDRESS          00277000
         N     R2,NFFS             ROUND DOWN TO PAGE NUMBER            00278000
*                                  NFFS = X'FFFFF000'                   00279000
         CR    R1,R2               CROSS PAGE BOUNDARY?                 00280000
         BL    PROGCHK             YES --                               00281000
         SL    R8,VMDVSTRT   VDEVBLOK DISP                     @VA00716 00282000
         TRANS 2,1,OPT=(BRING,DEFER),ADEX=PROGCHK1,IOER=EXIT1  @VA05901 00283100
*                            USER DATA                                  00284000
         AL    R8,VMDVSTRT   VDEVBLOK ADDRESS                  @VA00716 00285000
         IC    R0,VDEVKEY     INSPECT VIRTUAL CAW KEY          @V304735 00286000
         CALL  DMKPSASC       CHECK FOR PROTECTION VIOLATION   @V304735 00287000
         BNE   PROTCHK             PROTECTION VIOLATION                 00288000
         LR    R3,R2               SAVE REAL ADDRESS                    00289000
         A     R2,=F'23'           PROTECTION TEST FOR 2K BOUNDARY      00290000
         IC    R0,VDEVKEY     INSPECT VIRTUAL CAW KEY          @V304735 00291000
         CALL  DMKPSASC       CHECK FOR PROTECTION VIOLATION   @V304735 00292000
         BNE   PROTCHK             PROTECTION VIOLATION                 00293000
         LA    R1,0(,R3)           FIELD FOR DATE                       00294000
         LA    R2,8(,R3)           FIELD FOR TIME                       00295000
         CALL  DMKCVTDT            FILL THEM IN..                       00296000
         CALL  DMKTMRPT       OBTAIN UP-TO-DATE VTIME          @V2B2638 00297000
         STM   R0,R1,TEMPR0   SAVE IT FOR TOTAL CPU TIME CALCULATION    00298000
         BAL   R14,CVTIME     AND CONVERT IT                            00299000
         ST    R1,16(,R3)          STORE FOR USER                       00300000
         LM    R4,R5,VMTTIME  GET SUPERVISOR OVERHEAD TIME              00301000
         SL    R5,TEMPR1      SUBTRACT OUT PROBLEM TIME                 00302000
         BC    8+2+1,*+8      BR. IF NO-CARRY                           00303000
         SL    R4,F1          ADJUST FOR CARRY                          00304000
         SL    R4,TEMPR0      TOTAL CPU TIME NOW IN R4-5                00305000
         BAL   R14,CTTIME     AND CONVERT IT                            00306000
         ST    R1,20(,R3)          AND STORE IT                         00307000
         NI    VDEVSTAT,X'FF'-(VDEVBUSY+VDEVCHBS) MARK DEVICE NOT BUSY  00308000
         B     EXIT                EXIT                                 00309000
         SPACE                                                          00310000
CTTIME   LM    R0,R1,=X'7FFFFFFFFFFFF000'                               00311000
         SLR   R1,R5          COMPUTE SUPERVISOR TIME USED              00312000
         BC    8+2+1,*+8      BR. ON NO-CARRY                           00313000
         SL    R0,F1          RE-ADJUST FOR CARRY                       00314000
         SLR   R0,R4                                                    00315000
         SPACE                                                          00316000
CVTIME   SRDL  R0,12          CONVERT TO MICRO-SECONDS                  00317000
         SLR   R0,R0          REFLECT ONLY THE VALUE AFTER     @VW01580 00318000
*                             WRAPAROUND                                00319000
*                             IF VALUE MORE THAN X'FFFFFFFF'            00320000
         LTR   R1,R1          BYPASS DIVISION IF ZERO VALUE    @VW01580 00321000
         BZ    *+8                                             @VW01580 00322000
         D     R0,=F'13'           COMVERT TO TIMER UNITS               00323000
         BR    R14                 RETURN TO CALLER                     00324000
         SPACE 2                                                        00325000
CAWTEST  TM    ALIGNMNT,0          EXECUTED TO TEST CAW ALIGNMENT       00326000
         SPACE                                                          00327000
ALIGNMNT DC    X'07'                                                    00328000
         DS    0F                                                       00329000
NFFS     DC    X'FFFFF000'                                              00330000
         SPACE                                                          00331000
         DS    0H                                                       00332000
         EJECT                                                          00333000
*.                                                                      00334000
*                                                                       00335000
* SPOOLED CARD READER PROCESSING -                                      00336000
*                                                                       00337000
*        1. VERIFY THAT THE CCW OP-CODE IS LEGAL, AND SET UP INITIAL    00338000
*           STATUS CONDITIONS IN THE CSW                                00339000
*                                                                       00340000
*        2. VERIFY THAT THE COMMAND SEQUENCE IS LEGAL; THEN, IF THE     00341000
*           COMMAND IS A FEED ONLY, GO TO STEP 5; OTHERWISE, CONTINUE   00342000
*                                                                       00343000
*        3. FOR A DATA MOVING READ, INDEX TO THE NEXT DATA RECORD IN    00344000
*           THE BUFFER, LOCATE AND PAGE IN THE USERS DATA AREA, AND     00345000
*           MOVE THE RECORD TO THE USER'S VIRTUAL MEMORY SPACE.  THE    00346000
*           DATA MOVING SUBROUTINES MUST ALSO TEST FOR ADDRESSING AND   00347000
*           PROTECTION VIOLATIONS                                       00348000
*                                                                       00349000
*        4. TEST TO SEE IF A FEED HAS BEEN REQUESTED; IF IT HAS,        00350000
*           CONTINUE; OTHERWISE, SKIP TO STEP 6.                        00351000
*                                                                       00352000
*        5. LOCATE THE NEXT CARD IMAGE TO BE PASSED; IF NECESSARY, PAGE 00353000
*           IN THE NEXT SPOOL BUFFER, AND TEST FOR A POSSIBLE END OF    00354000
*           FILE CONDITION                                              00355000
*                                                                       00356000
*        6. CURRENT OPERATION IS NOW COMPLETE. TEST FOR ANY ERROR       00357000
*           CONDITIONS, AND IF FOUND EXIT AFTER POSTING PROPER ENDING   00358000
*           STATUS; OTHERWISE, CONTINUE                                 00359000
*                                                                       00360000
*        7. TEST FOR POSSIBLE COMMAND OR DATA CHAINING OR IDA: IF YES,  00361000
*           LOCATE AND VERIFY NEXT CCW AND RESTART INTERPRETATION       00362000
*           PROCESS; OTHERWISE, EXIT AFTER POSTING PROPER ENDING        00363000
*           STATUS                                                      00364000
*                                                                       00365000
*.                                                                      00366000
         SPACE 2                                                        00367000
READER   EQU   *   HERE TO PROCESS SIO TO SPOOLED READER                00368000
         LTR   R7,R7          ANY FILE FOUND?                  @VA03503 00369000